data_cif

_audit_creation_method             'generated by GULP'

_symmetry_space_group_name_H-M     'P 1             '
_symmetry_Int_Tables_number        1
_symmetry_cell_setting             Triclinic   

_cell_length_a                       3.967024
_cell_length_b                      13.095474
_cell_length_c                       8.059599
_cell_angle_alpha                   90.013612
_cell_angle_beta                   108.874891
_cell_angle_gamma                   90.038841

loop_
_atom_site_label
_atom_site_fract_x
_atom_site_fract_y
_atom_site_fract_z
_atom_site_occupancy
  C           0.50820      0.77910      0.66710  1.0000
  C           0.00796      0.23681      0.16702  1.0000
  C           0.33141      0.85254      0.91934  1.0000
  C           0.83127      0.16337      0.41929  1.0000
  N           0.46336      0.67949      0.73468  1.0000
  N           0.96299      0.33643      0.23456  1.0000
  C           0.36551      0.66378      0.89132  1.0000
  C           0.86504      0.35214      0.39118  1.0000
  N           0.29601      0.75119      0.98303  1.0000
  N           0.79569      0.26473      0.48293  1.0000
  O           0.34264      0.57411      0.94675  1.0000
  O           0.84194      0.44182      0.44655  1.0000
  O           0.59960      0.79040      0.53119  1.0000
  O           0.09933      0.22550      0.03111  1.0000
  N           0.28204      0.94742     -0.01510  1.0000
  N           0.78204      0.06848      0.48489  1.0000
  C           0.19879      0.74026      0.14549  1.0000
  C           0.69848      0.27566      0.64540  1.0000
  H           0.44197      0.75034      0.26272  1.0000
  H           0.94156      0.26554      0.76263  1.0000
  H           0.08090      0.66310      0.15009  1.0000
  H           0.58113      0.35283      0.65014  1.0000
  H           0.99967      0.79992      0.14931  1.0000
  H           0.49891      0.21602      0.64907  1.0000
  C           0.36102      0.02019      0.88464  1.0000
  C           0.86119      0.99572      0.38468  1.0000
  H           0.34219      0.10327      0.90710  1.0000
  H           0.84247      0.91263      0.40717  1.0000
  C           0.51603      0.58738      0.63775  1.0000
  C           1.01582      0.42854      0.13768  1.0000
  H           0.25602      0.54636      0.58266  1.0000
  H           0.75593      0.46952      0.08271  1.0000
  H           0.71422      0.53540      0.72948  1.0000
  H           0.21429      0.48055      0.22941  1.0000
  H           0.61832      0.60905      0.52840  1.0000
  H           0.11785      0.40688      0.02825  1.0000
  C           0.44014      0.86676      0.76860  1.0000
  C           0.94005      0.14915      0.26857  1.0000
  N           0.46060      0.97390      0.75104  1.0000
  N          -0.03925      0.04201      0.25107  1.0000
  H           0.56560      1.00885      0.65873  1.0000
  H           0.06574      0.00708      0.15877  1.0000
