data_cif

_audit_creation_method             'generated by GULP'

_symmetry_space_group_name_H-M     'P 1             '
_symmetry_Int_Tables_number        1
_symmetry_cell_setting             Triclinic   

_cell_length_a                       3.823384
_cell_length_b                      12.769075
_cell_length_c                       7.891909
_cell_angle_alpha                   90.004700
_cell_angle_beta                   109.895675
_cell_angle_gamma                   90.049955

loop_
_atom_site_label
_atom_site_fract_x
_atom_site_fract_y
_atom_site_fract_z
_atom_site_occupancy
  C           0.50820      0.77910      0.66710  1.0000
  C           0.00467      0.23664      0.16586  1.0000
  C           0.34026      0.85277      0.92258  1.0000
  C           0.83824      0.16301      0.42175  1.0000
  N           0.45852      0.67859      0.73295  1.0000
  N           0.95553      0.33717      0.23177  1.0000
  C           0.35970      0.66236      0.88972  1.0000
  C           0.85731      0.35340      0.38867  1.0000
  N           0.30022      0.75028      0.98507  1.0000
  N           0.79744      0.26551      0.48396  1.0000
  O           0.32700      0.57215      0.94161  1.0000
  O           0.82551      0.44360      0.44082  1.0000
  O           0.59814      0.79087      0.53124  1.0000
  O           0.09356      0.22482      0.02971  1.0000
  N           0.29146      0.94769     -0.00997  1.0000
  N           0.79275      0.06811      0.49033  1.0000
  C           0.20686      0.73924      0.14907  1.0000
  C           0.70414      0.27659      0.64800  1.0000
  H           0.45999      0.74813      0.26782  1.0000
  H           0.95746      0.26793      0.76662  1.0000
  H           0.08193      0.66191      0.15208  1.0000
  H           0.57909      0.35382      0.65103  1.0000
  H           1.00793      0.80033      0.15383  1.0000
  H           0.50530      0.21535      0.65286  1.0000
  C           0.37023      0.02075      0.88899  1.0000
  C           0.87282      0.99502      0.38975  1.0000
  H           0.35144      0.10461      0.91149  1.0000
  H           0.85720      0.91111      0.41333  1.0000
  C           0.50726      0.58603      0.63423  1.0000
  C           1.00420      0.42966      0.13298  1.0000
  H           0.23901      0.54516      0.57787  1.0000
  H           0.73638      0.47063      0.07733  1.0000
  H           0.71193      0.53319      0.72664  1.0000
  H           0.21033      0.48238      0.22516  1.0000
  H           0.60846      0.60839      0.52439  1.0000
  H           0.10364      0.40721      0.02263  1.0000
  C           0.44631      0.86729      0.77113  1.0000
  C           0.94382      0.14846      0.27020  1.0000
  N           0.46928      0.97497      0.75385  1.0000
  N          -0.03056      0.04077      0.25385  1.0000
  H           0.57407      1.01035      0.66150  1.0000
  H           0.07420      0.00540      0.16154  1.0000
