data_cif

_audit_creation_method             'generated by GULP'

_symmetry_space_group_name_H-M     'P 1             '
_symmetry_Int_Tables_number        1
_symmetry_cell_setting             Triclinic   

_cell_length_a                       3.874400
_cell_length_b                      12.889800
_cell_length_c                       8.116700
_cell_angle_alpha                   90.000000
_cell_angle_beta                    98.965000
_cell_angle_gamma                   90.000000

loop_
_atom_site_label
_atom_site_fract_x
_atom_site_fract_y
_atom_site_fract_z
_atom_site_occupancy
  C           0.50820      0.77910      0.66710  1.0000
  C           0.00820      0.22090      0.16710  1.0000
  C           0.34250      0.84700      0.92430  1.0000
  C           0.84250      0.15300      0.42430  1.0000
  N           0.40760      0.68330      0.72630  1.0000
  N           0.90760      0.31670      0.22630  1.0000
  C           0.28800      0.66540      0.87750  1.0000
  C           0.78800      0.33460      0.37750  1.0000
  N           0.25570      0.75100      0.97680  1.0000
  N           0.75570      0.24900      0.47680  1.0000
  O           0.21450      0.57860      0.91750  1.0000
  O           0.71450      0.42140      0.41750  1.0000
  O           0.60990      0.78720      0.53110  1.0000
  O           0.10990      0.21280      0.03110  1.0000
  N           0.32600      0.93770      0.00750  1.0000
  N           0.82600      0.06230      0.50750  1.0000
  C           0.14800      0.73610      0.14070  1.0000
  C           0.64800      0.26390      0.64070  1.0000
  H           0.34860      0.74250      0.22620  1.0000
  H           0.84860      0.25750      0.72620  1.0000
  H           0.04800      0.66830      0.14590  1.0000
  H           0.54800      0.33170      0.64590  1.0000
  H           0.97870      0.78770      0.15720  1.0000
  H           0.47870      0.21230      0.65720  1.0000
  C           0.44090      0.00690      0.90740  1.0000
  C           0.94090      0.99310      0.40740  1.0000
  H           0.45850      0.07740      0.93180  1.0000
  H           0.95850      0.92260      0.43180  1.0000
  C           0.43300      0.59090      0.61980  1.0000
  C           0.93300      0.40910      0.11980  1.0000
  H           0.20660      0.55990      0.59110  1.0000
  H           0.70660      0.44010      0.09110  1.0000
  H           0.59100      0.54150      0.67960  1.0000
  H           0.09100      0.45850      0.17960  1.0000
  H           0.51890      0.61140      0.51990  1.0000
  H           0.01890      0.38860      0.01990  1.0000
  C           0.46530      0.86080      0.77890  1.0000
  C           0.96530      0.13920      0.27890  1.0000
  N           0.52790      0.96630      0.76970  1.0000
  N           0.02790      0.03370      0.26970  1.0000
  H           0.60700      0.99870      0.69090  1.0000
  H           0.10700      0.00130      0.19090  1.0000
